Matlab code/test_15_radial.m
function mpc = test_15_radial
%InputProject    Power flow data for 9 bus, 3 generator case.
%   Please see CASEFORMAT for details on the case file format.
%   MATPOWER
%% MATPOWER Case Format : Version 2
mpc.version = '2';
%%-----  Power Flow Data  -----%%
%% system MVA base
mpc.baseMVA = 100;
%% bus data
%	bus_i	type	Pd	Qd	Gs	Bs	area	Vm	Va	baseKV	zone	Vmax	Vmin
mpc.bus = [
1	3	0	0	11	11	11	11	11	11	0.9;
2	1	0.0441	0.044990999	11	11	11	11	11	11	0.9;
3	1	0.07	0.071414284	11	11	11	11	11	11	0.9;
4	1	0.14	0.142828569	11	11	11	11	11	11	0.9;
5	1	0.0441	0.044990999	11	11	11	11	11	11	0.9;
6	1	0.14	0.142828569	11	11	11	11	11	11	0.9;
7	1	0.14	0.142828569	11	11	11	11	11	11	0.9;
8	1	0.07	0.071414284	11	11	11	11	11	11	0.9;
9	1	0.07	0.071414284	11	11	11	11	11	11	0.9;
10	1	0.0441	0.044990999	11	11	11	11	11	11	0.9;
11	1	0.14	0.142828569	11	11	11	11	11	11	0.9;
12	1	0.07	0.071414284	11	11	11	11	11	11	0.9;
13	1	0.0441	0.044990999	11	11	11	11	11	11	0.9;
14	1	0.07	0.071414284	11	11	11	11	11	11	0.9;
15	1	0.14	0.142828569	11	11	11	11	11	11	0.9;

    ];
%% generator data
%	bus	Pg	Qg	Qmax	Qmin	Vg	mBase	status	Pmax	Pmin	Pc1	Pc2	Qc1min	Qc1max	Qc2min	Qc2max	ramp_agc	ramp_10	ramp_30	ramp_q	apf
mpc.gen = [
	1	0 0 0 0 11 0 0 0 0 0 0 0 0 0 0 0 0 0 0 0;
];
%% branch data
%	fbus	tbus	r	x	b	rateA	rateB	rateC	ratio	angle	status	angmin	angmax
mpc.branch = [
1	2	1.118256198	1.093793388	-0.0087	150	150	150	0	0	1	-360	360;
2	3	0.967140496	0.945983471	-0.0087	150	150	150	0	0	1	-360	360;
3	4	0.695132231	0.67992562	-0.0087	150	150	150	0	0	1	-360	360;
4	5	1.25907438	0.849256198	-0.0087	150	150	150	0	0	1	-360	360;
2	9	1.66377686	1.122231405	-0.0087	150	150	150	0	0	1	-360	360;
9	10	1.393975207	0.940247934	-0.0087	150	150	150	0	0	1	-360	360;
2	6	2.113446281	1.42553719	-0.0087	150	150	150	0	0	1	-360	360;
6	7	0.899338843	0.60661157	-0.0087	150	150	150	0	0	1	-360	360;
6	8	1.034239669	0.697603306	-0.0087	150	150	150	0	0	1	-360	360;
3	11	1.483909091	1.000909091	-0.0087	150	150	150	0	0	1	-360	360;
11	12	2.023512397	1.364876033	-0.0087	150	150	150	0	0	1	-360	360;
12	13	1.66377686	1.122231405	-0.0087	150	150	150	0	0	1	-360	360;
4	14	1.843644628	1.243553719	-0.0087	150	150	150	0	0	1	-360	360;
4	15	0.989272727	0.667272727	-0.0087	150	150	150	0	0	1	-360	360;
    ];

%%-----  OPF Data  -----%%
%% generator cost data
%	1	startup	shutdown	n	x1	y1	...	xn	yn
%	2	startup	shutdown	n	c(n-1)	...	c0
mpc.gencost = [
	2	1500	0	3	0.11	5	150;
];
